Version 4
SHEET 1 880 680
WIRE -32 -96 -32 -128
WIRE -32 -96 -208 -96
WIRE 160 -96 -32 -96
WIRE 160 -48 160 -96
WIRE -208 32 -208 -96
WIRE 160 96 160 32
WIRE 160 208 160 176
WIRE 160 208 112 208
WIRE 160 224 160 208
WIRE -208 336 -208 112
WIRE 160 336 160 304
WIRE 160 336 -208 336
WIRE 160 368 160 336
FLAG 160 368 0
FLAG 112 208 V_sh
FLAG -32 -128 V_s
SYMBOL voltage -208 16 R0
WINDOW 123 0 0 Left 0
WINDOW 39 0 0 Left 0
SYMATTR InstName Vs
SYMATTR Value SINE(0 1 100k)
SYMBOL res 144 80 R0
SYMATTR InstName R
SYMATTR Value 1k
SYMBOL ind 144 -64 R0
SYMATTR InstName L
SYMATTR Value 1e-3
SYMBOL res 144 208 R0
SYMATTR InstName R_sh
SYMATTR Value 10
TEXT -504 -128 Left 2 !.tran 0 80u 20u 10n
